examples/test.m
function mpc = test
%TEST

%% MATPOWER Case Format : Version 2
mpc.version = '2';

%%-----  Power Flow Data  -----%%
%% system MVA base
mpc.baseMVA = 100;

%% bus data
%	bus_i	type	Pd	Qd	Gs	Bs	area	Vm	Va	baseKV	zone	Vmax	Vmin
mpc.bus = [
	1	1	14.9789954	0	0	0	0	1	0	22	0	1.2	0.9;
	2	1	24.8502283	0	0	0	0	1	0	22	0	1.2	0.9;
	3	1	54.0229452	0	0	0	0	1	0	22	0	1.2	0.9;
	4	1	27.1138128	0	0	0	0	1	0	22	0	1.2	0.9;
	5	1	61.9091324	0	0	0	0	1	0	22	0	1.2	0.9;
	6	1	9.71210046	0	0	0	0	1	0	22	0	1.2	0.9;
	7	1	39.9159817	0	0	0	0	1	0	22	0	1.2	0.9;
	8	1	63.2722603	0	0	0	0	1	0	22	0	1.2	0.9;
	9	1	109.463813	0	0	0	0	1	0	22	0	1.2	0.9;
	10	1	49.7997717	0	0	0	0	1	0	22	0	1.2	0.9;
	11	1	6.1456621	0	0	0	0	1	0	22	0	1.2	0.9;
	12	1	99.8305936	0	0	0	0	1	0	22	0	1.2	0.9;
	13	1	153.162557	0	0	0	0	1	0	22	0	1.2	0.9;
	14	1	40.8076484	0	0	0	0	1	0	22	0	1.2	0.9;
	15	1	106.760502	0	0	0	0	1	0	22	0	1.2	0.9;
	16	1	115.100685	0	0	0	0	1	0	22	0	1.2	0.9;
	17	1	116.942694	0	0	0	0	1	0	22	0	1.2	0.9;
	18	1	25.1268265	0	0	0	0	1	0	22	0	1.2	0.9;
	19	1	49.5827626	0	0	0	0	1	0	22	0	1.2	0.9;
	20	1	68.0727169	0	0	0	0	1	0	22	0	1.2	0.9;
	21	1	2.94155251	0	0	0	0	1	0	22	0	1.2	0.9;
	22	1	8.99737443	0	0	0	0	1	0	22	0	1.2	0.9;
	23	1	10.8635845	0	0	0	0	1	0	22	0	1.2	0.9;
	24	1	5.59657534	0	0	0	0	1	0	22	0	1.2	0.9;
	25	1	96.2998858	0	0	0	0	1	0	22	0	1.2	0.9;
	26	1	7.3619863	0	0	0	0	1	0	22	0	1.2	0.9;
	27	1	23.0876712	0	0	0	0	1	0	22	0	1.2	0.9;
	28	1	98.0847032	0	0	0	0	1	0	22	0	1.2	0.9;
	29	1	3.45399543	0	0	0	0	1	0	22	0	1.2	0.9;
	30	1	93.8705479	0	0	0	0	1	0	22	0	1.2	0.9;
	31	1	16.6586758	0	0	0	0	1	0	22	0	1.2	0.9;
	32	1	0.264155251	0	0	0	0	1	0	22	0	1.2	0.9;
	33	1	11.9203196	0	0	0	0	1	0	22	0	1.2	0.9;
	34	1	19.7673516	0	0	0	0	1	0	22	0	1.2	0.9;
	35	1	33.3125571	0	0	0	0	1	0	22	0	1.2	0.9;
	36	1	51.7200913	0	0	0	0	1	0	22	0	1.2	0.9;
	37	1	26.5494292	0	0	0	0	1	0	22	0	1.2	0.9;
	38	1	37.5939498	0	0	0	0	1	0	22	0	1.2	0.9;
	39	1	39.2706621	0	0	0	0	1	0	22	0	1.2	0.9;
	40	1	27.4004566	0	0	0	0	1	0	22	0	1.2	0.9;
	41	1	45.2023973	0	0	0	0	1	0	22	0	1.2	0.9;
	42	1	22.1686073	0	0	0	0	1	0	22	0	1.2	0.9;
	43	1	23.4836758	0	0	0	0	1	0	22	0	1.2	0.9;
	44	1	11.6557078	0	0	0	0	1	0	22	0	1.2	0.9;
	45	1	9.58938356	0	0	0	0	1	0	22	0	1.2	0.9;
	46	1	7.65856164	0	0	0	0	1	0	22	0	1.2	0.9;
	47	1	16.5069635	0	0	0	0	1	0	22	0	1.2	0.9;
	48	1	26.098516	0	0	0	0	1	0	22	0	1.2	0.9;
	49	1	18.3366438	0	0	0	0	1	0	22	0	1.2	0.9;
	50	1	19.5127854	0	0	0	0	1	0	22	0	1.2	0.9;
	51	1	105.31621	0	0	0	0	1	0	22	0	1.2	0.9;
	52	1	34.5734018	0	0	0	0	1	0	22	0	1.2	0.9;
	53	1	23.6017123	0	0	0	0	1	0	22	0	1.2	0.9;
	54	1	29.5898402	0	0	0	0	1	0	22	0	1.2	0.9;
	55	1	4.91826484	0	0	0	0	1	0	22	0	1.2	0.9;
	56	1	71.6663242	0	0	0	0	1	0	22	0	1.2	0.9;
	57	1	0	0	0	0	0	1	0	22	0	1.2	0.9;
	58	1	0	0	0	0	0	1	0	22	0	1.2	0.9;
	59	1	0	0	0	0	0	1	0	22	0	1.2	0.9;
	60	1	0	0	0	0	0	1	0	22	0	1.2	0.9;
	61	1	0	0	0	0	0	1	0	22	0	1.2	0.9;
	62	1	0	0	0	0	0	1	0	22	0	1.2	0.9;
	63	1	0	0	0	0	0	1	0	22	0	1.2	0.9;
	64	1	0	0	0	0	0	1	0	22	0	1.2	0.9;
	65	1	0	0	0	0	0	1	0	22	0	1.2	0.9;
	66	1	0	0	0	0	0	1	0	22	0	1.2	0.9;
	67	1	0	0	0	0	0	1	0	22	0	1.2	0.9;
	68	1	0	0	0	0	0	1	0	22	0	1.2	0.9;
	69	1	0	0	0	0	0	1	0	22	0	1.2	0.9;
	70	1	0	0	0	0	0	1	0	22	0	1.2	0.9;
	71	1	0	0	0	0	0	1	0	22	0	1.2	0.9;
	72	1	0	0	0	0	0	1	0	22	0	1.2	0.9;
	73	1	0	0	0	0	0	1	0	22	0	1.2	0.9;
	74	1	0	0	0	0	0	1	0	22	0	1.2	0.9;
	75	1	0	0	0	0	0	1	0	22	0	1.2	0.9;
	76	1	0	0	0	0	0	1	0	22	0	1.2	0.9;
	77	1	0	0	0	0	0	1	0	22	0	1.2	0.9;
	78	1	0	0	0	0	0	1	0	22	0	1.2	0.9;
	79	1	0	0	0	0	0	1	0	22	0	1.2	0.9;
	80	1	0	0	0	0	0	1	0	22	0	1.2	0.9;
	81	1	0	0	0	0	0	1	0	22	0	1.2	0.9;
	82	1	0	0	0	0	0	1	0	22	0	1.2	0.9;
	83	1	0	0	0	0	0	1	0	22	0	1.2	0.9;
	84	1	0	0	0	0	0	1	0	22	0	1.2	0.9;
	85	1	0	0	0	0	0	1	0	22	0	1.2	0.9;
	86	1	0	0	0	0	0	1	0	22	0	1.2	0.9;
	87	1	0	0	0	0	0	1	0	22	0	1.2	0.9;
	88	1	0	0	0	0	0	1	0	22	0	1.2	0.9;
	89	1	0	0	0	0	0	1	0	22	0	1.2	0.9;
	90	1	0	0	0	0	0	1	0	22	0	1.2	0.9;
	91	1	0	0	0	0	0	1	0	22	0	1.2	0.9;
	92	1	0	0	0	0	0	1	0	22	0	1.2	0.9;
	93	1	0	0	0	0	0	1	0	22	0	1.2	0.9;
	94	1	0	0	0	0	0	1	0	22	0	1.2	0.9;
	95	1	0	0	0	0	0	1	0	22	0	1.2	0.9;
	96	1	0	0	0	0	0	1	0	22	0	1.2	0.9;
	97	1	0	0	0	0	0	1	0	22	0	1.2	0.9;
	98	1	0	0	0	0	0	1	0	22	0	1.2	0.9;
	99	1	0	0	0	0	0	1	0	22	0	1.2	0.9;
	100	1	0	0	0	0	0	1	0	22	0	1.2	0.9;
	101	1	0	0	0	0	0	1	0	22	0	1.2	0.9;
	102	1	0	0	0	0	0	1	0	22	0	1.2	0.9;
	103	1	0	0	0	0	0	1	0	22	0	1.2	0.9;
	104	1	0	0	0	0	0	1	0	22	0	1.2	0.9;
	105	1	0	0	0	0	0	1	0	22	0	1.2	0.9;
	106	1	0	0	0	0	0	1	0	22	0	1.2	0.9;
	107	1	0	0	0	0	0	1	0	22	0	1.2	0.9;
	108	1	0	0	0	0	0	1	0	22	0	1.2	0.9;
	109	1	0	0	0	0	0	1	0	22	0	1.2	0.9;
	110	1	0	0	0	0	0	1	0	22	0	1.2	0.9;
	111	1	0	0	0	0	0	1	0	22	0	1.2	0.9;
	112	1	0	0	0	0	0	1	0	22	0	1.2	0.9;
	113	1	0	0	0	0	0	1	0	22	0	1.2	0.9;
	114	1	0	0	0	0	0	1	0	22	0	1.2	0.9;
	115	1	0	0	0	0	0	1	0	22	0	1.2	0.9;
	116	1	0	0	0	0	0	1	0	22	0	1.2	0.9;
	117	1	0	0	0	0	0	1	0	22	0	1.2	0.9;
	118	1	0	0	0	0	0	1	0	22	0	1.2	0.9;
	119	1	0	0	0	0	0	1	0	22	0	1.2	0.9;
	120	1	0	0	0	0	0	1	0	22	0	1.2	0.9;
	121	1	0	0	0	0	0	1	0	22	0	1.2	0.9;
	122	1	0	0	0	0	0	1	0	22	0	1.2	0.9;
	123	1	0	0	0	0	0	1	0	22	0	1.2	0.9;
	124	1	0	0	0	0	0	1	0	22	0	1.2	0.9;
	125	1	0	0	0	0	0	1	0	22	0	1.2	0.9;
	126	1	0	0	0	0	0	1	0	22	0	1.2	0.9;
	127	1	0	0	0	0	0	1	0	22	0	1.2	0.9;
	128	1	0	0	0	0	0	1	0	22	0	1.2	0.9;
	129	1	0	0	0	0	0	1	0	22	0	1.2	0.9;
	130	1	0	0	0	0	0	1	0	22	0	1.2	0.9;
	131	1	0	0	0	0	0	1	0	22	0	1.2	0.9;
	132	1	0	0	0	0	0	1	0	22	0	1.2	0.9;
	133	1	0	0	0	0	0	1	0	22	0	1.2	0.9;
	134	1	0	0	0	0	0	1	0	22	0	1.2	0.9;
	135	1	0	0	0	0	0	1	0	22	0	1.2	0.9;
	136	1	0	0	0	0	0	1	0	22	0	1.2	0.9;
	137	1	0	0	0	0	0	1	0	22	0	1.2	0.9;
	138	1	0	0	0	0	0	1	0	22	0	1.2	0.9;
	139	1	0	0	0	0	0	1	0	22	0	1.2	0.9;
	140	1	0	0	0	0	0	1	0	22	0	1.2	0.9;
	141	1	0	0	0	0	0	1	0	22	0	1.2	0.9;
	142	1	0	0	0	0	0	1	0	22	0	1.2	0.9;
	143	1	0	0	0	0	0	1	0	22	0	1.2	0.9;
	144	1	0	0	0	0	0	1	0	22	0	1.2	0.9;
	145	1	0	0	0	0	0	1	0	22	0	1.2	0.9;
	146	1	0	0	0	0	0	1	0	22	0	1.2	0.9;
	147	1	0	0	0	0	0	1	0	22	0	1.2	0.9;
	148	1	0	0	0	0	0	1	0	22	0	1.2	0.9;
	149	1	0	0	0	0	0	1	0	22	0	1.2	0.9;
	150	1	0	0	0	0	0	1	0	22	0	1.2	0.9;
	151	1	0	0	0	0	0	1	0	22	0	1.2	0.9;
	152	1	0	0	0	0	0	1	0	22	0	1.2	0.9;
	153	1	0	0	0	0	0	1	0	22	0	1.2	0.9;
	154	1	0	0	0	0	0	1	0	22	0	1.2	0.9;
	155	1	0	0	0	0	0	1	0	22	0	1.2	0.9;
	156	1	0	0	0	0	0	1	0	22	0	1.2	0.9;
	157	1	0	0	0	0	0	1	0	22	0	1.2	0.9;
	158	1	0	0	0	0	0	1	0	22	0	1.2	0.9;
	159	1	0	0	0	0	0	1	0	22	0	1.2	0.9;
	160	1	0	0	0	0	0	1	0	22	0	1.2	0.9;
	161	1	0	0	0	0	0	1	0	22	0	1.2	0.9;
	162	1	0	0	0	0	0	1	0	22	0	1.2	0.9;
	163	1	0	0	0	0	0	1	0	22	0	1.2	0.9;
	164	1	0	0	0	0	0	1	0	22	0	1.2	0.9;
	165	1	0	0	0	0	0	1	0	22	0	1.2	0.9;
	166	1	0	0	0	0	0	1	0	22	0	1.2	0.9;
	167	1	0	0	0	0	0	1	0	22	0	1.2	0.9;
	168	1	0	0	0	0	0	1	0	22	0	1.2	0.9;
	169	1	0	0	0	0	0	1	0	22	0	1.2	0.9;
	170	1	0	0	0	0	0	1	0	22	0	1.2	0.9;
	171	1	0	0	0	0	0	1	0	22	0	1.2	0.9;
	172	1	0	0	0	0	0	1	0	22	0	1.2	0.9;
	173	1	0	0	0	0	0	1	0	22	0	1.2	0.9;
	174	1	0	0	0	0	0	1	0	22	0	1.2	0.9;
	175	1	0	0	0	0	0	1	0	22	0	1.2	0.9;
	176	1	0	0	0	0	0	1	0	22	0	1.2	0.9;
	177	1	0	0	0	0	0	1	0	22	0	1.2	0.9;
	178	1	0	0	0	0	0	1	0	22	0	1.2	0.9;
	179	1	0	0	0	0	0	1	0	22	0	1.2	0.9;
	180	1	0	0	0	0	0	1	0	22	0	1.2	0.9;
	181	1	0	0	0	0	0	1	0	22	0	1.2	0.9;
	182	1	0	0	0	0	0	1	0	22	0	1.2	0.9;
	183	1	0	0	0	0	0	1	0	22	0	1.2	0.9;
	184	1	0	0	0	0	0	1	0	22	0	1.2	0.9;
	185	1	0	0	0	0	0	1	0	22	0	1.2	0.9;
	186	1	0	0	0	0	0	1	0	22	0	1.2	0.9;
	187	1	0	0	0	0	0	1	0	22	0	1.2	0.9;
	188	1	0	0	0	0	0	1	0	22	0	1.2	0.9;
	189	1	0	0	0	0	0	1	0	22	0	1.2	0.9;
	190	1	0	0	0	0	0	1	0	22	0	1.2	0.9;
	191	1	0	0	0	0	0	1	0	22	0	1.2	0.9;
	192	1	0	0	0	0	0	1	0	22	0	1.2	0.9;
	193	1	0	0	0	0	0	1	0	22	0	1.2	0.9;
	194	1	0	0	0	0	0	1	0	22	0	1.2	0.9;
	195	1	0	0	0	0	0	1	0	22	0	1.2	0.9;
	196	1	0	0	0	0	0	1	0	22	0	1.2	0.9;
	197	1	0	0	0	0	0	1	0	22	0	1.2	0.9;
	198	1	0	0	0	0	0	1	0	22	0	1.2	0.9;
	199	1	0	0	0	0	0	1	0	22	0	1.2	0.9;
	200	1	0	0	0	0	0	1	0	22	0	1.2	0.9;
...
];

%% generator data
%	bus	Pg	Qg	Qmax	Qmin	Vg	mBase	status	Pmax	Pmin	Pc1	Pc2	Qc1min	Qc1max	Qc2min	Qc2max	ramp_agc	ramp_10	ramp_30	ramp_q	apf
mpc.gen = [
	322	0	0	0	0	1	0	1	0	0	0	0	0	0	0	0	0	0	0	0	0;
];

%% branch data
%	fbus	tbus	r	x	b	rateA	rateB	rateC	ratio	angle	status	angmin	angmax
mpc.branch = [
	492	443	1.29132233e-06	1.29132233e-06	0	21.978	21.978	21.978	0	0	1	0	0;
	443	1035	0.000814709985	0.00050919376	0	6.49	6.49	6.49	0	0	1	0	0;
	1035	685	0.0296915423	0.0186392478	0	6.314	6.314	6.314	0	0	1	0	0;
	1133	770	1.21061469e-06	1.21061469e-06	0	21.978	21.978	21.978	0	0	1	0	0;
	770	226	3.22830583e-06	3.22830583e-06	0	21.978	21.978	21.978	0	0	1	0	0;
	226	613	0.00436025478	0.00272515934	0	6.49	6.49	6.49	0	0	1	0	0;
	613	685	0.00841252438	0.00525782794	0	6.49	6.49	6.49	0	0	1	0	0;
	918	1075	2.09839879e-06	2.09839879e-06	0	21.978	21.978	21.978	0	0	1	0	0;
	618	1069	1.12990704e-06	1.12990704e-06	0	21.978	21.978	21.978	0	0	1	0	0;
	685	1069	0.00490917883	0.0070692178	0	10.23	10.23	10.23	0	0	1	0	0;
	903	1109	0.0424271292	0.0266341764	0	6.314	6.314	6.314	0	0	1	0	0;
	911	164	1.29132233e-06	1.29132233e-06	0	21.978	21.978	21.978	0	0	1	0	0;
	164	466	1.29132233e-06	1.29132233e-06	0	21.978	21.978	21.978	0	0	1	0	0;
	582	466	0.0359403918	0.00784969592	0	3.74	3.74	3.74	0	0	1	0	0;
	417	582	0.00327931391	0.00122974272	0	5.28	5.28	5.28	0	0	1	0	0;
	356	417	0.0212315015	0.0195824526	0	8.14	8.14	8.14	0	0	1	0	0;
	1075	356	4.19679758e-06	4.19679758e-06	0	21.978	21.978	21.978	0	0	1	0	0;
	1075	358	4.35821288e-06	4.35821288e-06	0	21.978	21.978	21.978	0	0	1	0	0;
	611	358	0.0278438148	0.0174023849	0	6.49	6.49	6.49	0	0	1	0	0;
	1109	200	0.0352909929	0.022154375	0	6.314	6.314	6.314	0	0	1	0	0;
	1112	794	1.0491994e-06	1.0491994e-06	0	21.978	21.978	21.978	0	0	1	0	0;
	794	548	4.7617511e-06	4.7617511e-06	0	21.978	21.978	21.978	0	0	1	0	0;
	548	100	0.005485217	0.00342826076	0	6.49	6.49	6.49	0	0	1	0	0;
	100	200	0.0875258121	0.0237461343	0	1.87	1.87	1.87	0	0	1	0	0;
	200	752	0.0360233263	0.0226141067	0	6.314	6.314	6.314	0	0	1	0	0;
	752	321	0.04589931	0.0288138825	0	6.314	6.314	6.314	0	0	1	0	0;
	228	653	2.74405996e-06	2.74405996e-06	0	21.978	21.978	21.978	0	0	1	0	0;
	653	1046	5.16528933e-06	5.16528933e-06	0	21.978	21.978	21.978	0	0	1	0	0;
	321	1046	0.0389189871	0.00850024719	0	3.74	3.74	3.74	0	0	1	0	0;
	321	818	0.0505864084	0.0317562689	0	6.314	6.314	6.314	0	0	1	0	0;
	575	224	0.00747474467	0.00467171559	0	6.49	6.49	6.49	0	0	1	0	0;
	817	224	0.00037835396	0.000236471234	0	6.49	6.49	6.49	0	0	1	0	0;
	225	817	1.29132233e-06	1.29132233e-06	0	21.978	21.978	21.978	0	0	1	0	0;
	1113	83	2.74405996e-06	2.74405996e-06	0	21.978	21.978	21.978	0	0	1	0	0;
	83	478	2.42122938e-06	2.42122938e-06	0	21.978	21.978	21.978	0	0	1	0	0;
	542	292	1.61415292e-06	1.61415292e-06	0	21.978	21.978	21.978	0	0	1	0	0;
	292	661	3.55113642e-06	3.55113642e-06	0	21.978	21.978	21.978	0	0	1	0	0;
	661	955	0.00616922047	0.00569005763	0	8.14	8.14	8.14	0	0	1	0	0;
	955	767	0.0618771566	0.0135145122	0	3.74	3.74	3.74	0	0	1	0	0;
	555	609	2.42122938e-06	2.42122938e-06	0	21.978	21.978	21.978	0	0	1	0	0;
	609	1078	4.68104346e-06	4.68104346e-06	0	21.978	21.978	21.978	0	0	1	0	0;
	478	1078	0.011084317	0.00415661888	0	5.28	5.28	5.28	0	0	1	0	0;
	1029	478	0.00601656241	0.0022562109	0	5.28	5.28	5.28	0	0	1	0	0;
	700	1029	4.03538229e-06	4.03538229e-06	0	21.978	21.978	21.978	0	0	1	0	0;
	214	665	1.12990704e-06	1.12990704e-06	0	21.978	21.978	21.978	0	0	1	0	0;
	176	665	0.000315365765	0.00019710361	0	6.49	6.49	6.49	0	0	1	0	0;
	828	176	0.0331983515	0.0208406924	0	6.314	6.314	6.314	0	0	1	0	0;
	147	343	3.22830583e-06	3.22830583e-06	0	21.978	21.978	21.978	0	0	1	0	0;
	343	767	3.55113642e-06	3.55113642e-06	0	21.978	21.978	21.978	0	0	1	0	0;
	767	503	0.00577227334	0.00189107241	0	4.4	4.4	4.4	0	0	1	0	0;
	503	97	0.0084086033	0.0121083892	0	10.23	10.23	10.23	0	0	1	0	0;
	97	523	0.00649836282	0.00935764284	0	10.23	10.23	10.23	0	0	1	0	0;
	1038	523	4.51962817e-06	4.51962817e-06	0	21.978	21.978	21.978	0	0	1	0	0;
	411	1038	1.85627585e-06	1.85627585e-06	0	21.978	21.978	21.978	0	0	1	0	0;
	1125	156	1.29132233e-06	1.29132233e-06	0	21.978	21.978	21.978	0	0	1	0	0;
	1090	156	0.000287632407	0.000179770261	0	6.49	6.49	6.49	0	0	1	0	0;
	1090	819	0.0596673639	0.0223752615	0	5.28	5.28	5.28	0	0	1	0	0;
	974	819	4.9231664e-06	4.9231664e-06	0	21.978	21.978	21.978	0	0	1	0	0;
	136	974	3.873967e-06	3.873967e-06	0	21.978	21.978	21.978	0	0	1	0	0;
	602	671	3.22830583e-06	3.22830583e-06	0	21.978	21.978	21.978	0	0	1	0	0;
	671	229	1.1621901e-05	1.1621901e-05	0	21.978	21.978	21.978	0	0	1	0	0;
	70	229	0.035536413	0.0133261549	0	5.28	5.28	5.28	0	0	1	0	0;
	70	598	0.000636322281	0.00039770144	0	6.49	6.49	6.49	0	0	1	0	0;
	1025	598	1.29132233e-06	1.29132233e-06	0	21.978	21.978	21.978	0	0	1	0	0;
	695	1017	1.29132233e-06	1.29132233e-06	0	21.978	21.978	21.978	0	0	1	0	0;
	245	1017	0.000428417343	0.00026776085	0	6.49	6.49	6.49	0	0	1	0	0;
	115	245	0.0122613128	0.0045979923	0	5.28	5.28	5.28	0	0	1	0	0;
	168	828	0.0321536194	0.0201848484	0	6.314	6.314	6.314	0	0	1	0	0;
	285	420	2.09839879e-06	2.09839879e-06	0	21.978	21.978	21.978	0	0	1	0	0;
	420	58	1.61415292e-06	1.61415292e-06	0	21.978	21.978	21.978	0	0	1	0	0;
	58	367	0.000786557338	0.000171791002	0	3.74	3.74	3.74	0	0	1	0	0;
	477	399	1.12990704e-06	1.12990704e-06	0	21.978	21.978	21.978	0	0	1	0	0;
	399	554	0.000317006423	0.000198129022	0	6.49	6.49	6.49	0	0	1	0	0;
	826	589	1.77556821e-06	1.77556821e-06	0	21.978	21.978	21.978	0	0	1	0	0;
	589	495	3.71255171e-06	3.71255171e-06	0	21.978	21.978	21.978	0	0	1	0	0;
	289	495	0.0601702646	0.0131417121	0	3.74	3.74	3.74	0	0	1	0	0;
	369	289	2.50193702e-06	2.50193702e-06	0	21.978	21.978	21.978	0	0	1	0	0;
	78	262	2.42122938e-06	2.42122938e-06	0	21.978	21.978	21.978	0	0	1	0	0;
	262	347	2.09839879e-06	2.09839879e-06	0	21.978	21.978	21.978	0	0	1	0	0;
	1032	365	2.09839879e-06	2.09839879e-06	0	21.978	21.978	21.978	0	0	1	0	0;
	655	365	0.00059134017	0.00036958762	0	6.49	6.49	6.49	0	0	1	0	0;
	655	408	0.0157795826	0.00344639885	0	3.74	3.74	3.74	0	0	1	0	0;
	304	329	2.90547525e-06	2.90547525e-06	0	21.978	21.978	21.978	0	0	1	0	0;
	329	317	3.22830583e-06	3.22830583e-06	0	21.978	21.978	21.978	0	0	1	0	0;
	252	317	0.0112491905	0.0024569216	0	3.74	3.74	3.74	0	0	1	0	0;
	1081	252	0.0178168937	0.00389136543	0	3.74	3.74	3.74	0	0	1	0	0;
	1091	168	0.0195442787	0.0122691725	0	6.314	6.314	6.314	0	0	1	0	0;
	476	1091	0.0228340014	0.0143343383	0	6.314	6.314	6.314	0	0	1	0	0;
	80	878	0.0297267597	0.018661356	0	6.314	6.314	6.314	0	0	1	0	0;
	533	328	2.74405996e-06	2.74405996e-06	0	21.978	21.978	21.978	0	0	1	0	0;
	328	305	3.22830583e-06	3.22830583e-06	0	21.978	21.978	21.978	0	0	1	0	0;
	305	87	0.000379122983	8.28037754e-05	0	3.74	3.74	3.74	0	0	1	0	0;
	1079	400	2.90547525e-06	2.90547525e-06	0	21.978	21.978	21.978	0	0	1	0	0;
	400	450	2.58264467e-06	2.58264467e-06	0	21.978	21.978	21.978	0	0	1	0	0;
	450	931	0.0213158687	0.00698335801	0	4.4	4.4	4.4	0	0	1	0	0;
	554	856	0.111416799	0.0513531091	0	5.17	5.17	5.17	0	0	1	0	0;
	554	381	0.215234915	0.0636616405	0	2.53	2.53	2.53	0	0	1	0	0;
	129	640	4.7617511e-06	4.7617511e-06	0	21.978	21.978	21.978	0	0	1	0	0;
	421	640	0.00679343535	0.0097825473	0	10.23	10.23	10.23	0	0	1	0	0;
	748	421	0.00813464095	0.0117138834	0	10.23	10.23	10.23	0	0	1	0	0;
	748	906	0.0666013789	0.0218194847	0	4.4	4.4	4.4	0	0	1	0	0;
	1005	906	5.00387404e-06	5.00387404e-06	0	21.978	21.978	21.978	0	0	1	0	0;
	949	1005	2.09839879e-06	2.09839879e-06	0	21.978	21.978	21.978	0	0	1	0	0;
	1100	565	2.09839879e-06	2.09839879e-06	0	21.978	21.978	21.978	0	0	1	0	0;
	565	623	1.61415292e-06	1.61415292e-06	0	21.978	21.978	21.978	0	0	1	0	0;
	347	623	0.0240452498	0.0150282817	0	6.49	6.49	6.49	0	0	1	0	0;
	219	347	0.00968021647	0.00605013552	0	6.49	6.49	6.49	0	0	1	0	0;
	781	614	2.58264467e-06	2.58264467e-06	0	21.978	21.978	21.978	0	0	1	0	0;
	614	834	2.90547525e-06	2.90547525e-06	0	21.978	21.978	21.978	0	0	1	0	0;
	408	834	0.040147633	0.0087685942	0	3.74	3.74	3.74	0	0	1	0	0;
	195	408	0.00359512525	0.000785206801	0	3.74	3.74	3.74	0	0	1	0	0;
	487	198	2.58264467e-06	2.58264467e-06	0	21.978	21.978	21.978	0	0	1	0	0;
	198	659	2.74405996e-06	2.74405996e-06	0	21.978	21.978	21.978	0	0	1	0	0;
	709	659	0.0114583779	0.00375391479	0	4.4	4.4	4.4	0	0	1	0	0;
	927	878	0.0575855636	0.0361500786	0	6.314	6.314	6.314	0	0	1	0	0;
	320	927	0.0440805849	0.0276721544	0	6.314	6.314	6.314	0	0	1	0	0;
	381	320	0.0333112527	0.0209115676	0	6.314	6.314	6.314	0	0	1	0	0;
	149	381	0.0091596627	0.00575009614	0	6.314	6.314	6.314	0	0	1	0	0;
	175	149	0.0894707594	0.0561664206	0	6.314	6.314	6.314	0	0	1	0	0;
	512	617	3.06689054e-06	3.06689054e-06	0	21.978	21.978	21.978	0	0	1	0	0;
	617	995	5.64953521e-06	5.64953521e-06	0	21.978	21.978	21.978	0	0	1	0	0;
	995	111	0.11070606	0.00719891862	0	1.782	1.782	1.782	0	0	1	0	0;
	111	1085	0.04277245	0.00278137789	0	1.782	1.782	1.782	0	0	1	0	0;
	1085	619	0.000153623986	9.55175001e-05	0	6.864	6.864	6.864	0	0	1	0	0;
	619	502	0.0765654759	0.0250838535	0	4.4	4.4	4.4	0	0	1	0	0;
	206	577	3.06689054e-06	3.06689054e-06	0	21.978	21.978	21.978	0	0	1	0	0;
	577	871	3.38972113e-06	3.38972113e-06	0	21.978	21.978	21.978	0	0	1	0	0;
	1047	871	0.027679956	0.0172999731	0	6.49	6.49	6.49	0	0	1	0	0;
	1030	1047	0.0624661177	0.00780826472	0	2.53	2.53	2.53	0	0	1	0	0;
	527	1024	0.0180959963	0.0083406244	0	5.17	5.17	5.17	0	0	1	0	0;
	811	275	2.09839879e-06	2.09839879e-06	0	21.978	21.978	21.978	0	0	1	0	0;
	984	275	0.00258767818	0.00372625673	0	10.23	10.23	10.23	0	0	1	0	0;
	1082	175	0.0513585235	0.0322409741	0	6.314	6.314	6.314	0	0	1	0	0;
	75	904	2.58264467e-06	2.58264467e-06	0	21.978	21.978	21.978	0	0	1	0	0;
	904	406	2.25981408e-06	2.25981408e-06	0	21.978	21.978	21.978	0	0	1	0	0;
	406	235	0.000770198089	0.000147621297	0	3.19	3.19	3.19	0	0	1	0	0;
	712	1063	4.84514826e-06	4.84514826e-06	0	21.978	21.978	21.978	0	0	1	0	0;
	456	964	2.90547525e-06	2.90547525e-06	0	21.978	21.978	21.978	0	0	1	0	0;
	964	290	4.84245875e-06	4.84245875e-06	0	21.978	21.978	21.978	0	0	1	0	0;
	290	446	0.00377549011	0.00123690005	0	4.4	4.4	4.4	0	0	1	0	0;
	438	159	0.0309767576	0.0255963174	0	5.39	5.39	5.39	0	0	1	0	0;
	266	293	2.42122938e-06	2.42122938e-06	0	21.978	21.978	21.978	0	0	1	0	0;
	293	502	3.55113642e-06	3.55113642e-06	0	21.978	21.978	21.978	0	0	1	0	0;
	836	502	0.000373266541	0.000122287012	0	4.4	4.4	4.4	0	0	1	0	0;
	338	959	0.0800671459	0.0369037427	0	5.17	5.17	5.17	0	0	1	0	0;
	633	500	2.25981408e-06	2.25981408e-06	0	21.978	21.978	21.978	0	0	1	0	0;
	500	1028	3.55113642e-06	3.55113642e-06	0	21.978	21.978	21.978	0	0	1	0	0;
	815	1028	0.000378782472	4.73478091e-05	0	2.53	2.53	2.53	0	0	1	0	0;
	1082	527	0.0196987146	0.00907933318	0	5.17	5.17	5.17	0	0	1	0	0;
	524	1082	0.00644900474	0.00404844572	0	6.314	6.314	6.314	0	0	1	0	0;
	227	524	0.0777931697	0.0488356634	0	6.314	6.314	6.314	0	0	1	0	0;
	387	190	2.58264467e-06	2.58264467e-06	0	21.978	21.978	21.978	0	0	1	0	0;
	190	360	0.000296975544	0.000185609722	0	6.49	6.49	6.49	0	0	1	0	0;
	876	360	0.0389528996	0.0179537782	0	5.17	5.17	5.17	0	0	1	0	0;
	876	864	0.0353646224	0.0162999057	0	5.17	5.17	5.17	0	0	1	0	0;
	1063	431	0.129786009	0.0598196605	0	5.17	5.17	5.17	0	0	1	0	0;
	159	1063	0.0313798309	0.0259293798	0	5.39	5.39	5.39	0	0	1	0	0;
	213	159	0.0297409033	0.0245751222	0	5.39	5.39	5.39	0	0	1	0	0;
	864	896	0.00522201068	0.00431498496	0	5.39	5.39	5.39	0	0	1	0	0;
	953	774	2.90547525e-06	2.90547525e-06	0	21.978	21.978	21.978	0	0	1	0	0;
	802	580	2.90547525e-06	2.90547525e-06	0	21.978	21.978	21.978	0	0	1	0	0;
	580	574	2.9861829e-06	2.9861829e-06	0	21.978	21.978	21.978	0	0	1	0	0;
	311	959	2.74405996e-06	2.74405996e-06	0	21.978	21.978	21.978	0	0	1	0	0;
	959	151	0.0731286936	0.0337057411	0	5.17	5.17	5.17	0	0	1	0	0;
	1074	884	2.90547525e-06	2.90547525e-06	0	21.978	21.978	21.978	0	0	1	0	0;
	884	869	2.50193702e-06	2.50193702e-06	0	21.978	21.978	21.978	0	0	1	0	0;
	921	205	1.9369835e-06	1.9369835e-06	0	21.978	21.978	21.978	0	0	1	0	0;
	205	760	4.84245875e-06	4.84245875e-06	0	21.978	21.978	21.978	0	0	1	0	0;
	121	479	1.61415292e-06	1.61415292e-06	0	21.978	21.978	21.978	0	0	1	0	0;
	479	101	2.90547525e-06	2.90547525e-06	0	21.978	21.978	21.978	0	0	1	0	0;
	101	271	0.063563285	0.0138827774	0	3.74	3.74	3.74	0	0	1	0	0;
	315	67	2.74405996e-06	2.74405996e-06	0	21.978	21.978	21.978	0	0	1	0	0;
	67	174	2.74405996e-06	2.74405996e-06	0	21.978	21.978	21.978	0	0	1	0	0;
	434	174	0.000127829377	2.7919054e-05	0	3.74	3.74	3.74	0	0	1	0	0;
	864	371	0.0372828288	0.0234047756	0	6.314	6.314	6.314	0	0	1	0	0;
	935	864	0.0878784755	0.0551668439	0	6.314	6.314	6.314	0	0	1	0	0;
	715	990	2.09839879e-06	2.09839879e-06	0	21.978	21.978	21.978	0	0	1	0	0;
	990	844	5.15217044e-05	3.22010665e-05	0	6.49	6.49	6.49	0	0	1	0	0;
	844	658	0.0296554987	0.0136685139	0	5.17	5.17	5.17	0	0	1	0	0;
	1039	778	2.34052173e-06	2.34052173e-06	0	21.978	21.978	21.978	0	0	1	0	0;
	778	1022	7.26368813e-06	7.26368813e-06	0	21.978	21.978	21.978	0	0	1	0	0;
	774	1022	0.0390228973	0.0146335865	0	5.28	5.28	5.28	0	0	1	0	0;
	774	600	0.014159848	0.00176998101	0	2.53	2.53	2.53	0	0	1	0	0;
	687	798	0.0739931473	0.0341041764	0	5.17	5.17	5.17	0	0	1	0	0;
	388	287	1.12990704e-06	1.12990704e-06	0	21.978	21.978	21.978	0	0	1	0	0;
	287	574	0.00729968321	0.0105115442	0	10.23	10.23	10.23	0	0	1	0	0;
	727	574	0.00306296385	0.000668978096	0	3.74	3.74	3.74	0	0	1	0	0;
	823	727	0.00547523214	0.00119583859	0	3.74	3.74	3.74	0	0	1	0	0;
	792	823	1.77556821e-06	1.77556821e-06	0	21.978	21.978	21.978	0	0	1	0	0;
	162	792	3.5730798e-06	3.5730798e-06	0	21.978	21.978	21.978	0	0	1	0	0;
	162	312	3.34815161e-06	3.34815161e-06	0	21.978	21.978	21.978	0	0	1	0	0;
	312	599	4.84313127e-06	4.84313127e-06	0	21.978	21.978	21.978	0	0	1	0	0;
	599	349	0.0032511613	0.00468167246	0	10.23	10.23	10.23	0	0	1	0	0;
	908	402	1.12990704e-06	1.12990704e-06	0	21.978	21.978	21.978	0	0	1	0	0;
	402	151	0.000293459313	0.000183412078	0	6.49	6.49	6.49	0	0	1	0	0;
	151	161	0.0091721952	0.00422755585	0	5.17	5.17	5.17	0	0	1	0	0;
	185	485	1.9369835e-06	1.9369835e-06	0	21.978	21.978	21.978	0	0	1	0	0;
	485	812	2.42122938e-06	2.42122938e-06	0	21.978	21.978	21.978	0	0	1	0	0;
	869	812	0.0305726995	0.0114647623	0	5.28	5.28	5.28	0	0	1	0	0;
	760	869	0.0136218543	0.00510819537	0	5.28	5.28	5.28	0	0	1	0	0;
...
];
